*SPEF "IEEE 1481-1998"
*DESIGN "core"
*DATE "Mon Jul 31 23:08:09 2017"
*VENDOR "Cadence Design Systems, Inc."
*PROGRAM "Innovus"
*VERSION "16.21-s078_1"
*DESIGN_FLOW "COUPLING C" "PIN_CAP NONE" "NAME_SCOPE LOCAL"
*DIVIDER /
*DELIMITER :
*BUS_DELIMITER []
*T_UNIT 1 NS
*C_UNIT 1 PF
*R_UNIT 1 OHM
*L_UNIT 1 HENRY

// MMMC spef file for corner 'default_rc_corner'

*NAME_MAP

*1 fdclk/FE_PHN82_n12
*2 rf1/CTS_16
*3 CTS_60
*4 CTS_59
*5 CTS_58
*6 CTS_57
*7 CTS_56
*8 CTS_55
*9 CTS_54
*10 CTS_53
*11 CTS_52
*12 CTS_51
*13 rf1/CTS_15
*14 CTS_50
*15 CTS_49
*16 CTS_48
*17 CTS_47
*18 rf1/CTS_14
*19 CTS_46
*20 rf1/CTS_13
*21 exec1/alu1/add_1_root_add_13_2/FE_RN_13_0
*22 exec1/alu1/add_1_root_add_13_2/FE_RN_12_0
*23 exec1/alu1/add_1_root_add_13_2/FE_RN_11_0
*24 exec1/alu1/add_1_root_add_13_2/FE_RN_10_0
*25 exec1/alu1/add_1_root_add_13_2/FE_RN_9_0
*26 exec1/alu1/add_1_root_add_13_2/FE_RN_8_0
*27 exec1/alu1/add_1_root_add_13_2/FE_RN_7_0
*28 exec1/alu1/add_1_root_add_13_2/FE_RN_6_0
*29 exec1/alu1/FE_RN_5_0
*30 exec1/alu1/FE_RN_3_0
*31 exec1/alu1/FE_RN_2_0
*32 exec1/alu1/FE_RN_1_0
*33 exec1/alu1/FE_RN_0_0
*34 rf1/FE_OFN545_n
*35 rf1/FE_OFN544_FE_OFN18_n427
*36 rf1/FE_OFN543_FE_OFN19_n460
*37 rf1/FE_OFN542_FE_OFN529_n
*38 rf1/FE_OFN541_FE_OFN530_n
*39 exec1/FE_OFN540_n
*40 exec1/FE_OFN539_n
*41 exec1/FE_OFN538_alusrca_E
*42 exec1/FE_OFN536_alusrca_E
*43 exec1/alu1/FE_RN_2
*44 exec1/alu1/FE_OFN534_n106
*45 exec1/alu1/FE_RN_1
*46 exec1/alu1/FE_OFN532_n117
*47 rf1/FE_OFN531_n
*48 rf1/FE_OFN530_n
*49 rf1/FE_OFN529_n
*50 rf1/FE_OFN528_n
*51 rf1/FE_OFN527_n
*52 exec1/alu1/FE_OFN58_FE_DBTN3_n71
*53 exec1/alu1/FE_OFN57_n71
*54 rf1/FE_OFN50_n159
*55 rf1/FE_OFN44_n153
*56 rf1/FE_OFN25_n134
*57 rf1/FE_OFN24_n294
*58 FE_OFN23_n166
*59 exec1/alu1/FE_OFN22_FE_DBTN4_alucont_E_1
*60 rf1/FE_OFN21_n526
*61 rf1/FE_OFN20_n493
*62 rf1/FE_OFN19_n460
*63 rf1/FE_OFN18_n427
*64 rf1/FE_OFN17_n394
*65 rf1/FE_OFN16_n361
*66 rf1/FE_OFN15_n328
*67 rf1/FE_OFN14_n295
*68 exec1/alu1/FE_OFN13_alucont_E_1
*69 exec1/alu1/FE_OFN12_alucont_E_2
*70 FE_OFN11_n167
*71 FE_OFN10_reg_src_W
*72 exec1/FE_OFN9_alusrca_E
*73 rf1/FE_OFN8_instr_D_21
*74 rf1/FE_OFN7_instr_D_21
*75 rf1/FE_OFN6_instr_D_22
*76 rf1/FE_OFN5_instr_D_23
*77 FE_OFN4_FE_DBTN1_reset
*78 FE_OFN3_FE_DBTN1_reset
*79 FE_OFN2_FE_DBTN1_reset
*80 FE_OFN1_FE_DBTN1_reset
*81 FE_OFN0_FE_DBTN1_reset
*82 exec1/alu1/FE_DBTN4_alucont_E_1
*83 exec1/alu1/FE_DBTN3_n71
*84 FE_DBTN1_reset
*85 FE_DBTN0_reg_src_W
*86 imem_data[31]
*87 imem_data[30]
*88 imem_data[29]
*89 imem_data[28]
*90 imem_data[27]
*91 imem_data[26]
*92 imem_data[23]
*93 imem_data[22]
*94 imem_data[21]
*95 imem_data[18]
*96 imem_data[17]
*97 imem_data[16]
*98 imem_data[14]
*99 imem_data[13]
*100 imem_data[12]
*101 imem_data[11]
*102 imem_data[10]
*103 imem_data[9]
*104 imem_data[8]
*105 imem_data[7]
*106 imem_data[6]
*107 imem_data[5]
*108 imem_data[4]
*109 imem_data[3]
*110 imem_data[2]
*111 imem_data[1]
*112 imem_data[0]
*113 dmem_data[31]
*114 dmem_data[30]
*115 dmem_data[29]
*116 dmem_data[28]
*117 dmem_data[27]
*118 dmem_data[26]
*119 dmem_data[25]
*120 dmem_data[24]
*121 dmem_data[23]
*122 dmem_data[22]
*123 dmem_data[21]
*124 dmem_data[20]
*125 dmem_data[19]
*126 dmem_data[18]
*127 dmem_data[17]
*128 dmem_data[16]
*129 dmem_data[15]
*130 dmem_data[14]
*131 dmem_data[13]
*132 dmem_data[12]
*133 dmem_data[11]
*134 dmem_data[10]
*135 dmem_data[9]
*136 dmem_data[8]
*137 dmem_data[7]
*138 dmem_data[6]
*139 dmem_data[5]
*140 dmem_data[4]
*141 dmem_data[3]
*142 dmem_data[2]
*143 dmem_data[1]
*144 dmem_data[0]
*145 imem_addr[31]
*146 imem_addr[30]
*147 imem_addr[29]
*148 imem_addr[28]
*149 imem_addr[27]
*150 imem_addr[26]
*151 imem_addr[25]
*152 imem_addr[24]
*153 imem_addr[23]
*154 imem_addr[22]
*155 imem_addr[21]
*156 imem_addr[20]
*157 imem_addr[19]
*158 imem_addr[18]
*159 imem_addr[17]
*160 imem_addr[16]
*161 imem_addr[15]
*162 imem_addr[14]
*163 imem_addr[13]
*164 imem_addr[12]
*165 imem_addr[11]
*166 imem_addr[10]
*167 imem_addr[9]
*168 imem_addr[8]
*169 imem_addr[7]
*170 imem_addr[6]
*171 imem_addr[5]
*172 imem_addr[4]
*173 imem_addr[3]
*174 imem_addr[2]
*175 imem_addr[1]
*176 imem_addr[0]
*177 dmem_addr[31]
*178 dmem_addr[30]
*179 dmem_addr[29]
*180 dmem_addr[28]
*181 dmem_addr[27]
*182 dmem_addr[26]
*183 dmem_addr[25]
*184 dmem_addr[24]
*185 dmem_addr[23]
*186 dmem_addr[22]
*187 dmem_addr[21]
*188 dmem_addr[20]
*189 dmem_addr[19]
*190 dmem_addr[18]
*191 dmem_addr[17]
*192 dmem_addr[16]
*193 dmem_addr[15]
*194 dmem_addr[14]
*195 dmem_addr[13]
*196 dmem_addr[12]
*197 dmem_addr[11]
*198 dmem_addr[10]
*199 dmem_addr[9]
*200 dmem_addr[8]
*201 dmem_addr[7]
*202 dmem_addr[6]
*203 dmem_addr[5]
*204 dmem_addr[4]
*205 dmem_addr[3]
*206 dmem_addr[2]
*207 dmem_addr[1]
*208 dmem_addr[0]
*209 write_mem_data[31]
*210 write_mem_data[30]
*211 write_mem_data[29]
*212 write_mem_data[28]
*213 write_mem_data[27]
*214 write_mem_data[26]
*215 write_mem_data[25]
*216 write_mem_data[24]
*217 write_mem_data[23]
*218 write_mem_data[22]
*219 write_mem_data[21]
*220 write_mem_data[20]
*221 write_mem_data[19]
*222 write_mem_data[18]
*223 write_mem_data[17]
*224 write_mem_data[16]
*225 write_mem_data[15]
*226 write_mem_data[14]
*227 write_mem_data[13]
*228 write_mem_data[12]
*229 write_mem_data[11]
*230 write_mem_data[10]
*231 write_mem_data[9]
*232 write_mem_data[8]
*233 write_mem_data[7]
*234 write_mem_data[6]
*235 write_mem_data[5]
*236 write_mem_data[4]
*237 write_mem_data[3]
*238 write_mem_data[2]
*239 write_mem_data[1]
*240 write_mem_data[0]
*241 clk
*242 reset
*243 write_enable
*244 instr_D_31
*245 instr_D_30
*246 instr_D_29
*247 instr_D_28
*248 instr_D_27
*249 instr_D_26
*250 instr_D_23
*251 instr_D_22
*252 instr_D_21
*253 alusrca_D
*254 reg_write_W
*255 alusrca_E
*256 mem_write_E
*257 reg_write_E
*258 reg_src_E
*259 pc_src_E
*260 reg_src_W
*261 pc_src_W
*262 N14
*263 N15
*264 N16
*265 N17
*266 N18
*267 N19
*268 N20
*269 N21
*270 N22
*271 N23
*272 N24
*273 N25
*274 N26
*275 N27
*276 N28
*277 N29
*278 N30
*279 N31
*280 N32
*281 N33
*282 N34
*283 N35
*284 N36
*285 N37
*286 N38
*287 N39
*288 N40
*289 N41
*290 N42
*291 N75
*292 N76
*293 N77
*294 N78
*295 N79
*296 N80
*297 N81
*298 N82
*299 N83
*300 N84
*301 N85
*302 N86
*303 N87
*304 N88
*305 N89
*306 N90
*307 N91
*308 N92
*309 N93
*310 N94
*311 N95
*312 N96
*313 N97
*314 N98
*315 N99
*316 N100
*317 N101
*318 N102
*319 N103
*320 N104
*321 N105
*322 N106
*323 n134
*324 n135
*325 n136
*326 n137
*327 n138
*328 n139
*329 n140
*330 n141
*331 n142
*332 n143
*333 n144
*334 n145
*335 n146
*336 n147
*337 n148
*338 n149
*339 n150
*340 n151
*341 n152
*342 n153
*343 n154
*344 n155
*345 n156
*346 n157
*347 n158
*348 n159
*349 n160
*350 n161
*351 n162
*352 n163
*353 n164
*354 n165
*355 n166
*356 n167
*357 n168
*358 n169
*359 n195
*360 n196
*361 n197
*362 n198
*363 n199
*364 n200
*365 n201
*366 n202
*367 n203
*368 n204
*369 n205
*370 n206
*371 n207
*372 n208
*373 n209
*374 n210
*375 n211
*376 n212
*377 n213
*378 n214
*379 n215
*380 n216
*381 n217
*382 n218
*383 n219
*384 n220
*385 n221
*386 n222
*387 n223
*388 n224
*389 n226
*390 n228
*391 n230
*392 n232
*393 n234
*394 n236
*395 n238
*396 n240
*397 n242
*398 n244
*399 n246
*400 n248
*401 n250
*402 n252
*403 n254
*404 n256
*405 n258
*406 n260
*407 n262
*408 n264
*409 n266
*410 n268
*411 n270
*412 n272
*413 n274
*414 n276
*415 n278
*416 n280
*417 n282
*418 n284
*419 n286
*420 n289
*421 n290
*422 n291
*423 n292
*424 n293
*425 n294
*426 pc_D[31]
*427 pc_D[30]
*428 pc_D[29]
*429 pc_D[28]
*430 pc_D[27]
*431 pc_D[26]
*432 pc_D[25]
*433 pc_D[24]
*434 pc_D[23]
*435 pc_D[22]
*436 pc_D[21]
*437 pc_D[20]
*438 pc_D[19]
*439 pc_D[18]
*440 pc_D[17]
*441 pc_D[16]
*442 pc_D[15]
*443 pc_D[14]
*444 pc_D[13]
*445 pc_D[12]
*446 pc_D[11]
*447 pc_D[10]
*448 pc_D[9]
*449 pc_D[8]
*450 pc_D[7]
*451 pc_D[6]
*452 pc_D[5]
*453 pc_D[4]
*454 pc_D[3]
*455 pc_D[2]
*456 pc_D[1]
*457 pc_D[0]
*458 alucont_D[2]
*459 alucont_D[1]
*460 alucont_D[0]
*461 imm_D[14]
*462 imm_D[13]
*463 imm_D[12]
*464 imm_D[11]
*465 imm_D[10]
*466 imm_D[9]
*467 imm_D[8]
*468 imm_D[7]
*469 imm_D[6]
*470 imm_D[5]
*471 imm_D[4]
*472 imm_D[3]
*473 imm_D[2]
*474 imm_D[1]
*475 imm_D[0]
*476 state_D[3]
*477 state_D[2]
*478 state_D[1]
*479 state_D[0]
*480 reg_addr_W[2]
*481 reg_addr_W[1]
*482 reg_addr_W[0]
*483 rdata1_D[31]
*484 rdata1_D[30]
*485 rdata1_D[29]
*486 rdata1_D[28]
*487 rdata1_D[27]
*488 rdata1_D[26]
*489 rdata1_D[25]
*490 rdata1_D[24]
*491 rdata1_D[23]
*492 rdata1_D[22]
*493 rdata1_D[21]
*494 rdata1_D[20]
*495 rdata1_D[19]
*496 rdata1_D[18]
*497 rdata1_D[17]
*498 rdata1_D[16]
*499 rdata1_D[15]
*500 rdata1_D[14]
*501 rdata1_D[13]
*502 rdata1_D[12]
*503 rdata1_D[11]
*504 rdata1_D[10]
*505 rdata1_D[9]
*506 rdata1_D[8]
*507 rdata1_D[7]
*508 rdata1_D[6]
*509 rdata1_D[5]
*510 rdata1_D[4]
*511 rdata1_D[3]
*512 rdata1_D[2]
*513 rdata1_D[1]
*514 rdata1_D[0]
*515 imm_E[14]
*516 imm_E[13]
*517 imm_E[12]
*518 imm_E[11]
*519 imm_E[10]
*520 imm_E[9]
*521 imm_E[8]
*522 imm_E[7]
*523 imm_E[6]
*524 imm_E[5]
*525 imm_E[4]
*526 imm_E[3]
*527 imm_E[2]
*528 imm_E[1]
*529 imm_E[0]
*530 pc_E[31]
*531 pc_E[30]
*532 pc_E[29]
*533 pc_E[28]
*534 pc_E[27]
*535 pc_E[26]
*536 pc_E[25]
*537 pc_E[24]
*538 pc_E[23]
*539 pc_E[22]
*540 pc_E[21]
*541 pc_E[20]
*542 pc_E[19]
*543 pc_E[18]
*544 pc_E[17]
*545 pc_E[16]
*546 pc_E[15]
*547 pc_E[14]
*548 pc_E[13]
*549 pc_E[12]
*550 pc_E[11]
*551 pc_E[10]
*552 pc_E[9]
*553 pc_E[8]
*554 pc_E[7]
*555 pc_E[6]
*556 pc_E[5]
*557 pc_E[4]
*558 pc_E[3]
*559 pc_E[2]
*560 pc_E[1]
*561 pc_E[0]
*562 alucont_E[2]
*563 alucont_E[1]
*564 alucont_E[0]
*565 rdata1_E[31]
*566 rdata1_E[30]
*567 rdata1_E[29]
*568 rdata1_E[28]
*569 rdata1_E[27]
*570 rdata1_E[26]
*571 rdata1_E[25]
*572 rdata1_E[24]
*573 rdata1_E[23]
*574 rdata1_E[22]
*575 rdata1_E[21]
*576 rdata1_E[20]
*577 rdata1_E[19]
*578 rdata1_E[18]
*579 rdata1_E[17]
*580 rdata1_E[16]
*581 rdata1_E[15]
*582 rdata1_E[14]
*583 rdata1_E[13]
*584 rdata1_E[12]
*585 rdata1_E[11]
*586 rdata1_E[10]
*587 rdata1_E[9]
*588 rdata1_E[8]
*589 rdata1_E[7]
*590 rdata1_E[6]
*591 rdata1_E[5]
*592 rdata1_E[4]
*593 rdata1_E[3]
*594 rdata1_E[2]
*595 rdata1_E[1]
*596 rdata1_E[0]
*597 rdata2_E[31]
*598 rdata2_E[30]
*599 rdata2_E[29]
*600 rdata2_E[28]
*601 rdata2_E[27]
*602 rdata2_E[26]
*603 rdata2_E[25]
*604 rdata2_E[24]
*605 rdata2_E[23]
*606 rdata2_E[22]
*607 rdata2_E[21]
*608 rdata2_E[20]
*609 rdata2_E[19]
*610 rdata2_E[18]
*611 rdata2_E[17]
*612 rdata2_E[16]
*613 rdata2_E[15]
*614 rdata2_E[14]
*615 rdata2_E[13]
*616 rdata2_E[12]
*617 rdata2_E[11]
*618 rdata2_E[10]
*619 rdata2_E[9]
*620 rdata2_E[8]
*621 rdata2_E[7]
*622 rdata2_E[6]
*623 rdata2_E[5]
*624 rdata2_E[4]
*625 rdata2_E[3]
*626 rdata2_E[2]
*627 rdata2_E[1]
*628 rdata2_E[0]
*629 reg_addr_E[2]
*630 reg_addr_E[1]
*631 reg_addr_E[0]
*632 state_E[3]
*633 state_E[2]
*634 state_E[1]
*635 state_E[0]
*636 aluresult_E[31]
*637 aluresult_E[30]
*638 aluresult_E[29]
*639 aluresult_E[28]
*640 aluresult_E[27]
*641 aluresult_E[26]
*642 aluresult_E[25]
*643 aluresult_E[24]
*644 aluresult_E[23]
*645 aluresult_E[22]
*646 aluresult_E[21]
*647 aluresult_E[20]
*648 aluresult_E[19]
*649 aluresult_E[18]
*650 aluresult_E[17]
*651 aluresult_E[16]
*652 aluresult_E[15]
*653 aluresult_E[14]
*654 aluresult_E[13]
*655 aluresult_E[12]
*656 aluresult_E[11]
*657 aluresult_E[10]
*658 aluresult_E[9]
*659 aluresult_E[8]
*660 aluresult_E[7]
*661 aluresult_E[6]
*662 aluresult_E[5]
*663 aluresult_E[4]
*664 aluresult_E[3]
*665 aluresult_E[2]
*666 aluresult_E[1]
*667 aluresult_E[0]
*668 fdclk/n2
*669 fdclk/n4
*670 fdclk/n6
*671 fdclk/n8
*672 fdclk/n10
*673 fdclk/n12
*674 fdclk/n14
*675 fdclk/n16
*676 fdclk/n18
*677 fdclk/n20
*678 fdclk/n22
*679 fdclk/n24
*680 fdclk/n26
*681 fdclk/n28
*682 fdclk/n30
*683 fdclk/n34
*684 fdclk/n36
*685 fdclk/n38
*686 fdclk/n44
*687 fdclk/n46
*688 fdclk/n48
*689 fdclk/n54
*690 fdclk/n56
*691 fdclk/n58
*692 fdclk/n60
*693 fdclk/n62
*694 fdclk/n64
*695 fdclk/n66
*696 fdclk/n68
*697 fdclk/n70
*698 fdclk/n72
*699 fdclk/n74
*700 fdclk/n76
*701 fdclk/n78
*702 fdclk/n80
*703 fdclk/n82
*704 fdclk/n84
*705 fdclk/n86
*706 fdclk/n88
*707 fdclk/n90
*708 fdclk/n92
*709 fdclk/n94
*710 fdclk/n96
*711 fdclk/n98
*712 fdclk/n100
*713 fdclk/n102
*714 fdclk/n104
*715 fdclk/n106
*716 fdclk/n108
*717 fdclk/n110
*718 fdclk/n112
*719 fdclk/n114
*720 fdclk/n116
*721 fdclk/n118
*722 fdclk/n120
*723 fdclk/n122
*724 fdclk/n124
*725 fdclk/n126
*726 fdclk/n128
*727 dec1/n8
*728 dec1/n9
*729 dec1/n10
*730 dec1/n11
*731 dec1/n12
*732 dec1/n13
*733 dec1/n14
*734 dec1/n15
*735 dec1/n16
*736 dec1/n17
*737 dec1/n18
*738 dec1/n19
*739 dec1/n20
*740 dec1/n21
*741 dec1/n22
*742 dec1/n1
*743 dec1/n3
*744 dec1/n4
*745 dec1/n5
*746 dec1/n6
*747 dec1/aluop[1]
*748 dec1/aluop[0]
*749 dec1/adec/n1
*750 dec1/adec/n2
*751 dec1/adec/n3
*752 dec1/ac1/n6
*753 dec1/ac1/n7
*754 dec1/ac1/n8
*755 dec1/ac1/n9
*756 dec1/ac1/n10
*757 dec1/ac1/n11
*758 dec1/ac1/n12
*759 dec1/ac1/n13
*760 dec1/ac1/n1
*761 dec1/ac1/n2
*762 dec1/ac1/n3
*763 dec1/ac1/n4
*764 rf1/RAM\[7\]\[31\]
*765 rf1/RAM\[7\]\[30\]
*766 rf1/RAM\[7\]\[29\]
*767 rf1/RAM\[7\]\[28\]
*768 rf1/RAM\[7\]\[27\]
*769 rf1/RAM\[7\]\[26\]
*770 rf1/RAM\[7\]\[25\]
*771 rf1/RAM\[7\]\[24\]
*772 rf1/RAM\[7\]\[23\]
*773 rf1/RAM\[7\]\[22\]
*774 rf1/RAM\[7\]\[21\]
*775 rf1/RAM\[7\]\[20\]
*776 rf1/RAM\[7\]\[19\]
*777 rf1/RAM\[7\]\[18\]
*778 rf1/RAM\[7\]\[17\]
*779 rf1/RAM\[7\]\[16\]
*780 rf1/RAM\[7\]\[15\]
*781 rf1/RAM\[7\]\[14\]
*782 rf1/RAM\[7\]\[13\]
*783 rf1/RAM\[7\]\[12\]
*784 rf1/RAM\[7\]\[11\]
*785 rf1/RAM\[7\]\[10\]
*786 rf1/RAM\[7\]\[9\]
*787 rf1/RAM\[7\]\[8\]
*788 rf1/RAM\[7\]\[7\]
*789 rf1/RAM\[7\]\[6\]
*790 rf1/RAM\[7\]\[5\]
*791 rf1/RAM\[7\]\[4\]
*792 rf1/RAM\[7\]\[3\]
*793 rf1/RAM\[7\]\[2\]
*794 rf1/RAM\[7\]\[1\]
*795 rf1/RAM\[7\]\[0\]
*796 rf1/RAM\[6\]\[31\]
*797 rf1/RAM\[6\]\[30\]
*798 rf1/RAM\[6\]\[29\]
*799 rf1/RAM\[6\]\[28\]
*800 rf1/RAM\[6\]\[27\]
*801 rf1/RAM\[6\]\[26\]
*802 rf1/RAM\[6\]\[25\]
*803 rf1/RAM\[6\]\[24\]
*804 rf1/RAM\[6\]\[23\]
*805 rf1/RAM\[6\]\[22\]
*806 rf1/RAM\[6\]\[21\]
*807 rf1/RAM\[6\]\[20\]
*808 rf1/RAM\[6\]\[19\]
*809 rf1/RAM\[6\]\[18\]
*810 rf1/RAM\[6\]\[17\]
*811 rf1/RAM\[6\]\[16\]
*812 rf1/RAM\[6\]\[15\]
*813 rf1/RAM\[6\]\[14\]
*814 rf1/RAM\[6\]\[13\]
*815 rf1/RAM\[6\]\[12\]
*816 rf1/RAM\[6\]\[11\]
*817 rf1/RAM\[6\]\[10\]
*818 rf1/RAM\[6\]\[9\]
*819 rf1/RAM\[6\]\[8\]
*820 rf1/RAM\[6\]\[7\]
*821 rf1/RAM\[6\]\[6\]
*822 rf1/RAM\[6\]\[5\]
*823 rf1/RAM\[6\]\[4\]
*824 rf1/RAM\[6\]\[3\]
*825 rf1/RAM\[6\]\[2\]
*826 rf1/RAM\[6\]\[1\]
*827 rf1/RAM\[6\]\[0\]
*828 rf1/RAM\[5\]\[31\]
*829 rf1/RAM\[5\]\[30\]
*830 rf1/RAM\[5\]\[29\]
*831 rf1/RAM\[5\]\[28\]
*832 rf1/RAM\[5\]\[27\]
*833 rf1/RAM\[5\]\[26\]
*834 rf1/RAM\[5\]\[25\]
*835 rf1/RAM\[5\]\[24\]
*836 rf1/RAM\[5\]\[23\]
*837 rf1/RAM\[5\]\[22\]
*838 rf1/RAM\[5\]\[21\]
*839 rf1/RAM\[5\]\[20\]
*840 rf1/RAM\[5\]\[19\]
*841 rf1/RAM\[5\]\[18\]
*842 rf1/RAM\[5\]\[17\]
*843 rf1/RAM\[5\]\[16\]
*844 rf1/RAM\[5\]\[15\]
*845 rf1/RAM\[5\]\[14\]
*846 rf1/RAM\[5\]\[13\]
*847 rf1/RAM\[5\]\[12\]
*848 rf1/RAM\[5\]\[11\]
*849 rf1/RAM\[5\]\[10\]
*850 rf1/RAM\[5\]\[9\]
*851 rf1/RAM\[5\]\[8\]
*852 rf1/RAM\[5\]\[7\]
*853 rf1/RAM\[5\]\[6\]
*854 rf1/RAM\[5\]\[5\]
*855 rf1/RAM\[5\]\[4\]
*856 rf1/RAM\[5\]\[3\]
*857 rf1/RAM\[5\]\[2\]
*858 rf1/RAM\[5\]\[1\]
*859 rf1/RAM\[5\]\[0\]
*860 rf1/RAM\[4\]\[31\]
*861 rf1/RAM\[4\]\[30\]
*862 rf1/RAM\[4\]\[29\]
*863 rf1/RAM\[4\]\[28\]
*864 rf1/RAM\[4\]\[27\]
*865 rf1/RAM\[4\]\[26\]
*866 rf1/RAM\[4\]\[25\]
*867 rf1/RAM\[4\]\[24\]
*868 rf1/RAM\[4\]\[23\]
*869 rf1/RAM\[4\]\[22\]
*870 rf1/RAM\[4\]\[21\]
*871 rf1/RAM\[4\]\[20\]
*872 rf1/RAM\[4\]\[19\]
*873 rf1/RAM\[4\]\[18\]
*874 rf1/RAM\[4\]\[17\]
*875 rf1/RAM\[4\]\[16\]
*876 rf1/RAM\[4\]\[15\]
*877 rf1/RAM\[4\]\[14\]
*878 rf1/RAM\[4\]\[13\]
*879 rf1/RAM\[4\]\[12\]
*880 rf1/RAM\[4\]\[11\]
*881 rf1/RAM\[4\]\[10\]
*882 rf1/RAM\[4\]\[9\]
*883 rf1/RAM\[4\]\[8\]
*884 rf1/RAM\[4\]\[7\]
*885 rf1/RAM\[4\]\[6\]
*886 rf1/RAM\[4\]\[5\]
*887 rf1/RAM\[4\]\[4\]
*888 rf1/RAM\[4\]\[3\]
*889 rf1/RAM\[4\]\[2\]
*890 rf1/RAM\[4\]\[1\]
*891 rf1/RAM\[4\]\[0\]
*892 rf1/RAM\[3\]\[31\]
*893 rf1/RAM\[3\]\[30\]
*894 rf1/RAM\[3\]\[29\]
*895 rf1/RAM\[3\]\[28\]
*896 rf1/RAM\[3\]\[27\]
*897 rf1/RAM\[3\]\[26\]
*898 rf1/RAM\[3\]\[25\]
*899 rf1/RAM\[3\]\[24\]
*900 rf1/RAM\[3\]\[23\]
*901 rf1/RAM\[3\]\[22\]
*902 rf1/RAM\[3\]\[21\]
*903 rf1/RAM\[3\]\[20\]
*904 rf1/RAM\[3\]\[19\]
*905 rf1/RAM\[3\]\[18\]
*906 rf1/RAM\[3\]\[17\]
*907 rf1/RAM\[3\]\[16\]
*908 rf1/RAM\[3\]\[15\]
*909 rf1/RAM\[3\]\[14\]
*910 rf1/RAM\[3\]\[13\]
*911 rf1/RAM\[3\]\[12\]
*912 rf1/RAM\[3\]\[11\]
*913 rf1/RAM\[3\]\[10\]
*914 rf1/RAM\[3\]\[9\]
*915 rf1/RAM\[3\]\[8\]
*916 rf1/RAM\[3\]\[7\]
*917 rf1/RAM\[3\]\[6\]
*918 rf1/RAM\[3\]\[5\]
*919 rf1/RAM\[3\]\[4\]
*920 rf1/RAM\[3\]\[3\]
*921 rf1/RAM\[3\]\[2\]
*922 rf1/RAM\[3\]\[1\]
*923 rf1/RAM\[3\]\[0\]
*924 rf1/RAM\[2\]\[31\]
*925 rf1/RAM\[2\]\[30\]
*926 rf1/RAM\[2\]\[29\]
*927 rf1/RAM\[2\]\[28\]
*928 rf1/RAM\[2\]\[27\]
*929 rf1/RAM\[2\]\[26\]
*930 rf1/RAM\[2\]\[25\]
*931 rf1/RAM\[2\]\[24\]
*932 rf1/RAM\[2\]\[23\]
*933 rf1/RAM\[2\]\[22\]
*934 rf1/RAM\[2\]\[21\]
*935 rf1/RAM\[2\]\[20\]
*936 rf1/RAM\[2\]\[19\]
*937 rf1/RAM\[2\]\[18\]
*938 rf1/RAM\[2\]\[17\]
*939 rf1/RAM\[2\]\[16\]
*940 rf1/RAM\[2\]\[15\]
*941 rf1/RAM\[2\]\[14\]
*942 rf1/RAM\[2\]\[13\]
*943 rf1/RAM\[2\]\[12\]
*944 rf1/RAM\[2\]\[11\]
*945 rf1/RAM\[2\]\[10\]
*946 rf1/RAM\[2\]\[9\]
*947 rf1/RAM\[2\]\[8\]
*948 rf1/RAM\[2\]\[7\]
*949 rf1/RAM\[2\]\[6\]
*950 rf1/RAM\[2\]\[5\]
*951 rf1/RAM\[2\]\[4\]
*952 rf1/RAM\[2\]\[3\]
*953 rf1/RAM\[2\]\[2\]
*954 rf1/RAM\[2\]\[1\]
*955 rf1/RAM\[2\]\[0\]
*956 rf1/RAM\[1\]\[31\]
*957 rf1/RAM\[1\]\[30\]
*958 rf1/RAM\[1\]\[29\]
*959 rf1/RAM\[1\]\[28\]
*960 rf1/RAM\[1\]\[27\]
*961 rf1/RAM\[1\]\[26\]
*962 rf1/RAM\[1\]\[25\]
*963 rf1/RAM\[1\]\[24\]
*964 rf1/RAM\[1\]\[23\]
*965 rf1/RAM\[1\]\[22\]
*966 rf1/RAM\[1\]\[21\]
*967 rf1/RAM\[1\]\[20\]
*968 rf1/RAM\[1\]\[19\]
*969 rf1/RAM\[1\]\[18\]
*970 rf1/RAM\[1\]\[17\]
*971 rf1/RAM\[1\]\[16\]
*972 rf1/RAM\[1\]\[15\]
*973 rf1/RAM\[1\]\[14\]
*974 rf1/RAM\[1\]\[13\]
*975 rf1/RAM\[1\]\[12\]
*976 rf1/RAM\[1\]\[11\]
*977 rf1/RAM\[1\]\[10\]
*978 rf1/RAM\[1\]\[9\]
*979 rf1/RAM\[1\]\[8\]
*980 rf1/RAM\[1\]\[7\]
*981 rf1/RAM\[1\]\[6\]
*982 rf1/RAM\[1\]\[5\]
*983 rf1/RAM\[1\]\[4\]
*984 rf1/RAM\[1\]\[3\]
*985 rf1/RAM\[1\]\[2\]
*986 rf1/RAM\[1\]\[1\]
*987 rf1/RAM\[1\]\[0\]
*988 rf1/RAM\[0\]\[31\]
*989 rf1/RAM\[0\]\[30\]
*990 rf1/RAM\[0\]\[29\]
*991 rf1/RAM\[0\]\[28\]
*992 rf1/RAM\[0\]\[27\]
*993 rf1/RAM\[0\]\[26\]
*994 rf1/RAM\[0\]\[25\]
*995 rf1/RAM\[0\]\[24\]
*996 rf1/RAM\[0\]\[23\]
*997 rf1/RAM\[0\]\[22\]
*998 rf1/RAM\[0\]\[21\]
*999 rf1/RAM\[0\]\[20\]
*1000 rf1/RAM\[0\]\[19\]
*1001 rf1/RAM\[0\]\[18\]
*1002 rf1/RAM\[0\]\[17\]
*1003 rf1/RAM\[0\]\[16\]
*1004 rf1/RAM\[0\]\[15\]
*1005 rf1/RAM\[0\]\[14\]
*1006 rf1/RAM\[0\]\[13\]
*1007 rf1/RAM\[0\]\[12\]
*1008 rf1/RAM\[0\]\[11\]
*1009 rf1/RAM\[0\]\[10\]
*1010 rf1/RAM\[0\]\[9\]
*1011 rf1/RAM\[0\]\[8\]
*1012 rf1/RAM\[0\]\[7\]
*1013 rf1/RAM\[0\]\[6\]
*1014 rf1/RAM\[0\]\[5\]
*1015 rf1/RAM\[0\]\[4\]
*1016 rf1/RAM\[0\]\[3\]
*1017 rf1/RAM\[0\]\[2\]
*1018 rf1/RAM\[0\]\[1\]
*1019 rf1/RAM\[0\]\[0\]
*1020 rf1/N281
*1021 rf1/N282
*1022 rf1/N283
*1023 rf1/N284
*1024 rf1/N285
*1025 rf1/N286
*1026 rf1/N287
*1027 rf1/N288
*1028 rf1/N289
*1029 rf1/N290
*1030 rf1/N291
*1031 rf1/N292
*1032 rf1/N293
*1033 rf1/N294
*1034 rf1/N295
*1035 rf1/N296
*1036 rf1/N297
*1037 rf1/N298
*1038 rf1/N299
*1039 rf1/N300
*1040 rf1/N301
*1041 rf1/N302
*1042 rf1/N303
*1043 rf1/N304
*1044 rf1/N305
*1045 rf1/N306
*1046 rf1/N307
*1047 rf1/N308
*1048 rf1/N309
*1049 rf1/N310
*1050 rf1/N311
*1051 rf1/N312
*1052 rf1/n294
*1053 rf1/n295
*1054 rf1/n296
*1055 rf1/n297
*1056 rf1/n298
*1057 rf1/n299
*1058 rf1/n300
*1059 rf1/n301
*1060 rf1/n302
*1061 rf1/n303
*1062 rf1/n304
*1063 rf1/n305
*1064 rf1/n306
*1065 rf1/n307
*1066 rf1/n308
*1067 rf1/n309
*1068 rf1/n310
*1069 rf1/n311
*1070 rf1/n312
*1071 rf1/n313
*1072 rf1/n314
*1073 rf1/n315
*1074 rf1/n316
*1075 rf1/n317
*1076 rf1/n318
*1077 rf1/n319
*1078 rf1/n320
*1079 rf1/n321
*1080 rf1/n322
*1081 rf1/n323
*1082 rf1/n324
*1083 rf1/n325
*1084 rf1/n326
*1085 rf1/n327
*1086 rf1/n328
*1087 rf1/n329
*1088 rf1/n330
*1089 rf1/n331
*1090 rf1/n332
*1091 rf1/n333
*1092 rf1/n334
*1093 rf1/n335
*1094 rf1/n336
*1095 rf1/n337
*1096 rf1/n338
*1097 rf1/n339
*1098 rf1/n340
*1099 rf1/n341
*1100 rf1/n342
*1101 rf1/n343
*1102 rf1/n344
*1103 rf1/n345
*1104 rf1/n346
*1105 rf1/n347
*1106 rf1/n348
*1107 rf1/n349
*1108 rf1/n350
*1109 rf1/n351
*1110 rf1/n352
*1111 rf1/n353
*1112 rf1/n354
*1113 rf1/n355
*1114 rf1/n356
*1115 rf1/n357
*1116 rf1/n358
*1117 rf1/n359
*1118 rf1/n360
*1119 rf1/n361
*1120 rf1/n362
*1121 rf1/n363
*1122 rf1/n364
*1123 rf1/n365
*1124 rf1/n366
*1125 rf1/n367
*1126 rf1/n368
*1127 rf1/n369
*1128 rf1/n370
*1129 rf1/n371
*1130 rf1/n372
*1131 rf1/n373
*1132 rf1/n374
*1133 rf1/n375
*1134 rf1/n376
*1135 rf1/n377
*1136 rf1/n378
*1137 rf1/n379
*1138 rf1/n380
*1139 rf1/n381
*1140 rf1/n382
*1141 rf1/n383
*1142 rf1/n384
*1143 rf1/n385
*1144 rf1/n386
*1145 rf1/n387
*1146 rf1/n388
*1147 rf1/n389
*1148 rf1/n390
*1149 rf1/n391
*1150 rf1/n392
*1151 rf1/n393
*1152 rf1/n394
*1153 rf1/n395
*1154 rf1/n396
*1155 rf1/n397
*1156 rf1/n398
*1157 rf1/n399
*1158 rf1/n400
*1159 rf1/n401
*1160 rf1/n402
*1161 rf1/n403
*1162 rf1/n404
*1163 rf1/n405
*1164 rf1/n406
*1165 rf1/n407
*1166 rf1/n408
*1167 rf1/n409
*1168 rf1/n410
*1169 rf1/n411
*1170 rf1/n412
*1171 rf1/n413
*1172 rf1/n414
*1173 rf1/n415
*1174 rf1/n416
*1175 rf1/n417
*1176 rf1/n418
*1177 rf1/n419
*1178 rf1/n420
*1179 rf1/n421
*1180 rf1/n422
*1181 rf1/n423
*1182 rf1/n424
*1183 rf1/n425
*1184 rf1/n426
*1185 rf1/n427
*1186 rf1/n428
*1187 rf1/n429
*1188 rf1/n430
*1189 rf1/n431
*1190 rf1/n432
*1191 rf1/n433
*1192 rf1/n434
*1193 rf1/n435
*1194 rf1/n436
*1195 rf1/n437
*1196 rf1/n438
*1197 rf1/n439
*1198 rf1/n440
*1199 rf1/n441
*1200 rf1/n442
*1201 rf1/n443
*1202 rf1/n444
*1203 rf1/n445
*1204 rf1/n446
*1205 rf1/n447
*1206 rf1/n448
*1207 rf1/n449
*1208 rf1/n450
*1209 rf1/n451
*1210 rf1/n452
*1211 rf1/n453
*1212 rf1/n454
*1213 rf1/n455
*1214 rf1/n456
*1215 rf1/n457
*1216 rf1/n458
*1217 rf1/n459
*1218 rf1/n460
*1219 rf1/n461
*1220 rf1/n462
*1221 rf1/n463
*1222 rf1/n464
*1223 rf1/n465
*1224 rf1/n466
*1225 rf1/n467
*1226 rf1/n468
*1227 rf1/n469
*1228 rf1/n470
*1229 rf1/n471
*1230 rf1/n472
*1231 rf1/n473
*1232 rf1/n474
*1233 rf1/n475
*1234 rf1/n476
*1235 rf1/n477
*1236 rf1/n478
*1237 rf1/n479
*1238 rf1/n480
*1239 rf1/n481
*1240 rf1/n482
*1241 rf1/n483
*1242 rf1/n484
*1243 rf1/n485
*1244 rf1/n486
*1245 rf1/n487
*1246 rf1/n488
*1247 rf1/n489
*1248 rf1/n490
*1249 rf1/n491
*1250 rf1/n492
*1251 rf1/n493
*1252 rf1/n494
*1253 rf1/n495
*1254 rf1/n496
*1255 rf1/n497
*1256 rf1/n498
*1257 rf1/n499
*1258 rf1/n500
*1259 rf1/n501
*1260 rf1/n502
*1261 rf1/n503
*1262 rf1/n504
*1263 rf1/n505
*1264 rf1/n506
*1265 rf1/n507
*1266 rf1/n508
*1267 rf1/n509
*1268 rf1/n510
*1269 rf1/n511
*1270 rf1/n512
*1271 rf1/n513
*1272 rf1/n514
*1273 rf1/n515
*1274 rf1/n516
*1275 rf1/n517
*1276 rf1/n518
*1277 rf1/n519
*1278 rf1/n520
*1279 rf1/n521
*1280 rf1/n522
*1281 rf1/n523
*1282 rf1/n524
*1283 rf1/n525
*1284 rf1/n526
*1285 rf1/n527
*1286 rf1/n528
*1287 rf1/n529
*1288 rf1/n530
*1289 rf1/n531
*1290 rf1/n532
*1291 rf1/n533
*1292 rf1/n534
*1293 rf1/n535
*1294 rf1/n536
*1295 rf1/n537
*1296 rf1/n538
*1297 rf1/n539
*1298 rf1/n540
*1299 rf1/n541
*1300 rf1/n542
*1301 rf1/n543
*1302 rf1/n544
*1303 rf1/n545
*1304 rf1/n546
*1305 rf1/n547
*1306 rf1/n548
*1307 rf1/n549
*1308 rf1/n550
*1309 rf1/n551
*1310 rf1/n552
*1311 rf1/n553
*1312 rf1/n554
*1313 rf1/n555
*1314 rf1/n556
*1315 rf1/n557
*1316 rf1/n558
*1317 rf1/n559
*1318 rf1/n560
*1319 rf1/n561
*1320 rf1/n562
*1321 rf1/n563
*1322 rf1/n564
*1323 rf1/n565
*1324 rf1/n566
*1325 rf1/n567
*1326 rf1/n568
*1327 rf1/n569
*1328 rf1/n570
*1329 rf1/n571
*1330 rf1/n572
*1331 rf1/n573
*1332 rf1/n574
*1333 rf1/n575
*1334 rf1/n576
*1335 rf1/n577
*1336 rf1/n578
*1337 rf1/n579
*1338 rf1/n580
*1339 rf1/n581
*1340 rf1/n582
*1341 rf1/n583
*1342 rf1/n584
*1343 rf1/n585
*1344 rf1/n586
*1345 rf1/n587
*1346 rf1/n588
*1347 rf1/n589
*1348 rf1/n590
*1349 rf1/n591
*1350 rf1/n592
*1351 rf1/n593
*1352 rf1/n594
*1353 rf1/n595
*1354 rf1/n596
*1355 rf1/n597
*1356 rf1/n598
*1357 rf1/n599
*1358 rf1/n600
*1359 rf1/n601
*1360 rf1/n602
*1361 rf1/n603
*1362 rf1/n604
*1363 rf1/n605
*1364 rf1/n606
*1365 rf1/n607
*1366 rf1/n608
*1367 rf1/n609
*1368 rf1/n610
*1369 rf1/n611
*1370 rf1/n612
*1371 rf1/n613
*1372 rf1/n614
*1373 rf1/n615
*1374 rf1/n616
*1375 rf1/n617
*1376 rf1/n618
*1377 rf1/n619
*1378 rf1/n620
*1379 rf1/n621
*1380 rf1/n622
*1381 rf1/n623
*1382 rf1/n624
*1383 rf1/n625
*1384 rf1/n626
*1385 rf1/n627
*1386 rf1/n628
*1387 rf1/n629
*1388 rf1/n630
*1389 rf1/n631
*1390 rf1/n632
*1391 rf1/n633
*1392 rf1/n634
*1393 rf1/n635
*1394 rf1/n636
*1395 rf1/n637
*1396 rf1/n638
*1397 rf1/n639
*1398 rf1/n640
*1399 rf1/n641
*1400 rf1/n642
*1401 rf1/n643
*1402 rf1/n644
*1403 rf1/n645
*1404 rf1/n646
*1405 rf1/n647
*1406 rf1/n648
*1407 rf1/n649
*1408 rf1/n650
*1409 rf1/n651
*1410 rf1/n652
*1411 rf1/n653
*1412 rf1/n654
*1413 rf1/n655
*1414 rf1/n656
*1415 rf1/n657
*1416 rf1/n658
*1417 rf1/n659
*1418 rf1/n660
*1419 rf1/n661
*1420 rf1/n662
*1421 rf1/n663
*1422 rf1/n664
*1423 rf1/n665
*1424 rf1/n666
*1425 rf1/n667
*1426 rf1/n668
*1427 rf1/n669
*1428 rf1/n670
*1429 rf1/n671
*1430 rf1/n672
*1431 rf1/n673
*1432 rf1/n674
*1433 rf1/n675
*1434 rf1/n676
*1435 rf1/n677
*1436 rf1/n678
*1437 rf1/n679
*1438 rf1/n680
*1439 rf1/n681
*1440 rf1/n682
*1441 rf1/n683
*1442 rf1/n684
*1443 rf1/n685
*1444 rf1/n686
*1445 rf1/n687
*1446 rf1/n688
*1447 rf1/n689
*1448 rf1/n690
*1449 rf1/n691
*1450 rf1/n692
*1451 rf1/n693
*1452 rf1/n694
*1453 rf1/n695
*1454 rf1/n696
*1455 rf1/n697
*1456 rf1/n698
*1457 rf1/n699
*1458 rf1/n700
*1459 rf1/n701
*1460 rf1/n702
*1461 rf1/n703
*1462 rf1/n704
*1463 rf1/n705
*1464 rf1/n706
*1465 rf1/n707
*1466 rf1/n708
*1467 rf1/n709
*1468 rf1/n710
*1469 rf1/n711
*1470 rf1/n712
*1471 rf1/n713
*1472 rf1/n714
*1473 rf1/n715
*1474 rf1/n716
*1475 rf1/n717
*1476 rf1/n718
*1477 rf1/n719
*1478 rf1/n720
*1479 rf1/n721
*1480 rf1/n722
*1481 rf1/n723
*1482 rf1/n724
*1483 rf1/n725
*1484 rf1/n726
*1485 rf1/n727
*1486 rf1/n728
*1487 rf1/n729
*1488 rf1/n730
*1489 rf1/n731
*1490 rf1/n732
*1491 rf1/n733
*1492 rf1/n734
*1493 rf1/n735
*1494 rf1/n736
*1495 rf1/n737
*1496 rf1/n738
*1497 rf1/n739
*1498 rf1/n740
*1499 rf1/n741
*1500 rf1/n742
*1501 rf1/n743
*1502 rf1/n744
*1503 rf1/n745
*1504 rf1/n746
*1505 rf1/n747
*1506 rf1/n748
*1507 rf1/n749
*1508 rf1/n750
*1509 rf1/n751
*1510 rf1/n752
*1511 rf1/n753
*1512 rf1/n754
*1513 rf1/n755
*1514 rf1/n756
*1515 rf1/n757
*1516 rf1/n758
*1517 rf1/n759
*1518 rf1/n760
*1519 rf1/n761
*1520 rf1/n762
*1521 rf1/n763
*1522 rf1/n764
*1523 rf1/n765
*1524 rf1/n766
*1525 rf1/n767
*1526 rf1/n768
*1527 rf1/n769
*1528 rf1/n770
*1529 rf1/n771
*1530 rf1/n772
*1531 rf1/n773
*1532 rf1/n774
*1533 rf1/n775
*1534 rf1/n776
*1535 rf1/n777
*1536 rf1/n778
*1537 rf1/n779
*1538 rf1/n780
*1539 rf1/n781
*1540 rf1/n782
*1541 rf1/n783
*1542 rf1/n784
*1543 rf1/n785
*1544 rf1/n786
*1545 rf1/n787
*1546 rf1/n788
*1547 rf1/n789
*1548 rf1/n790
*1549 rf1/n791
*1550 rf1/n792
*1551 rf1/n793
*1552 rf1/n794
*1553 rf1/n795
*1554 rf1/n796
*1555 rf1/n797
*1556 rf1/n798
*1557 rf1/n799
*1558 rf1/n800
*1559 rf1/n801
*1560 rf1/n802
*1561 rf1/n803
*1562 rf1/n804
*1563 rf1/n805
*1564 rf1/n806
*1565 rf1/n807
*1566 rf1/n808
*1567 rf1/n809
*1568 rf1/n810
*1569 rf1/n811
*1570 rf1/n812
*1571 rf1/n813
*1572 rf1/n814
*1573 rf1/n1
*1574 rf1/n258
*1575 rf1/n259
*1576 rf1/n260
*1577 rf1/n261
*1578 rf1/n262
*1579 rf1/n263
*1580 rf1/n264
*1581 rf1/n265
*1582 rf1/n266
*1583 rf1/n267
*1584 rf1/n268
*1585 rf1/n269
*1586 rf1/n270
*1587 rf1/n271
*1588 rf1/n272
*1589 rf1/n273
*1590 rf1/n274
*1591 rf1/n275
*1592 rf1/n276
*1593 rf1/n277
*1594 rf1/n278
*1595 rf1/n279
*1596 rf1/n280
*1597 rf1/n281
*1598 rf1/n282
*1599 rf1/n283
*1600 rf1/n284
*1601 rf1/n285
*1602 rf1/n286
*1603 rf1/n287
*1604 rf1/n288
*1605 rf1/n289
*1606 rf1/n290
*1607 rf1/n291
*1608 rf1/n292
*1609 rf1/n815
*1610 rf1/n816
*1611 rf1/n817
*1612 rf1/n818
*1613 rf1/n819
*1614 rf1/n820
*1615 rf1/n821
*1616 rf1/n822
*1617 rf1/n823
*1618 rf1/n824
*1619 rf1/n825
*1620 rf1/n826
*1621 rf1/n827
*1622 rf1/n828
*1623 rf1/n829
*1624 rf1/n830
*1625 rf1/n831
*1626 rf1/n832
*1627 rf1/n833
*1628 rf1/n834
*1629 rf1/n835
*1630 rf1/n836
*1631 rf1/n837
*1632 rf1/n838
*1633 rf1/n839
*1634 rf1/n840
*1635 rf1/n841
*1636 rf1/n842
*1637 rf1/n843
*1638 rf1/n844
*1639 rf1/n845
*1640 rf1/n846
*1641 rf1/n847
*1642 rf1/n848
*1643 rf1/n849
*1644 rf1/n850
*1645 rf1/n851
*1646 rf1/n852
*1647 rf1/n853
*1648 rf1/n854
*1649 rf1/n855
*1650 rf1/n856
*1651 rf1/n857
*1652 rf1/n858
*1653 rf1/n859
*1654 rf1/n860
*1655 rf1/n861
*1656 rf1/n862
*1657 rf1/n863
*1658 rf1/n864
*1659 rf1/n865
*1660 rf1/n866
*1661 rf1/n867
*1662 rf1/n868
*1663 rf1/n869
*1664 rf1/n870
*1665 rf1/n871
*1666 rf1/n872
*1667 rf1/n873
*1668 rf1/n874
*1669 rf1/n875
*1670 rf1/n876
*1671 rf1/n877
*1672 rf1/n878
*1673 rf1/n879
*1674 rf1/n880
*1675 rf1/n881
*1676 rf1/n882
*1677 rf1/n883
*1678 rf1/n884
*1679 rf1/n885
*1680 rf1/n886
*1681 rf1/n887
*1682 rf1/n888
*1683 rf1/n889
*1684 rf1/n890
*1685 rf1/n891
*1686 rf1/n892
*1687 rf1/n893
*1688 rf1/n894
*1689 rf1/n895
*1690 rf1/n896
*1691 rf1/n897
*1692 rf1/n898
*1693 rf1/n899
*1694 rf1/n900
*1695 rf1/n901
*1696 rf1/n902
*1697 rf1/n903
*1698 rf1/n904
*1699 rf1/n905
*1700 rf1/n906
*1701 rf1/n907
*1702 rf1/n908
*1703 rf1/n909
*1704 rf1/n910
*1705 rf1/n911
*1706 rf1/n912
*1707 rf1/n913
*1708 rf1/n914
*1709 rf1/n915
*1710 rf1/n916
*1711 rf1/n917
*1712 rf1/n918
*1713 rf1/n919
*1714 rf1/n920
*1715 rf1/n921
*1716 rf1/n922
*1717 rf1/n923
*1718 rf1/n924
*1719 rf1/n925
*1720 rf1/n926
*1721 rf1/n927
*1722 rf1/n928
*1723 rf1/n929
*1724 rf1/n930
*1725 rf1/n931
*1726 rf1/n932
*1727 rf1/n933
*1728 rf1/n934
*1729 rf1/n935
*1730 rf1/n936
*1731 rf1/n937
*1732 rf1/n938
*1733 rf1/n939
*1734 rf1/n940
*1735 rf1/n941
*1736 rf1/n942
*1737 rf1/n943
*1738 rf1/n944
*1739 rf1/n945
*1740 rf1/n946
*1741 rf1/n947
*1742 rf1/n948
*1743 rf1/n949
*1744 rf1/n950
*1745 rf1/n951
*1746 rf1/n952
*1747 rf1/n953
*1748 rf1/n954
*1749 rf1/n955
*1750 rf1/n956
*1751 rf1/n957
*1752 rf1/n958
*1753 rf1/n959
*1754 rf1/n960
*1755 rf1/n961